instances/data_GOC/Phase_0_Modified_RTS96/scenario_5/powersystem.raw
 0,  100.000000
rts96_spring_wday.raw / File written by to_psse.gms
5 / 19 / 2015
101, ' 101 ',138,2,1,1,1,1.00,0.00,1.1,0.9,1.1,0.9
102, ' 102 ',138,2,1,1,1,1.00,0.00,1.1,0.9,1.1,0.9
103, ' 103 ',138,1,1,1,1,1.00,0.00,1.1,0.9,1.1,0.9
104, ' 104 ',138,1,1,1,1,1.00,0.00,1.1,0.9,1.1,0.9
105, ' 105 ',138,1,1,1,1,1.00,0.00,1.1,0.9,1.1,0.9
106, ' 106 ',138,1,1,1,1,1.00,0.00,1.1,0.9,1.1,0.9
107, ' 107 ',138,2,1,1,1,1.00,0.00,1.1,0.9,1.1,0.9
108, ' 108 ',138,1,1,1,1,1.00,0.00,1.1,0.9,1.1,0.9
109, ' 109 ',138,1,1,1,1,1.00,0.00,1.1,0.9,1.1,0.9
110, ' 110 ',138,1,1,1,1,1.00,0.00,1.1,0.9,1.1,0.9
111, ' 111 ',230,1,1,1,1,1.00,0.00,1.1,0.9,1.1,0.9
112, ' 112 ',230,1,1,1,1,1.00,0.00,1.1,0.9,1.1,0.9
113, ' 113 ',230,3,1,1,1,1.00,0.00,1.1,0.9,1.1,0.9
114, ' 114 ',230,2,1,1,1,1.00,0.00,1.1,0.9,1.1,0.9
115, ' 115 ',230,2,1,1,1,1.00,0.00,1.1,0.9,1.1,0.9
116, ' 116 ',230,2,1,1,1,1.00,0.00,1.1,0.9,1.1,0.9
117, ' 117 ',230,1,1,1,1,1.00,0.00,1.1,0.9,1.1,0.9
118, ' 118 ',230,2,1,1,1,1.00,0.00,1.1,0.9,1.1,0.9
119, ' 119 ',230,1,1,1,1,1.00,0.00,1.1,0.9,1.1,0.9
120, ' 120 ',230,1,1,1,1,1.00,0.00,1.1,0.9,1.1,0.9
121, ' 121 ',230,2,1,1,1,1.00,0.00,1.1,0.9,1.1,0.9
122, ' 122 ',230,2,1,1,1,1.00,0.00,1.1,0.9,1.1,0.9
123, ' 123 ',230,2,1,1,1,1.00,0.00,1.1,0.9,1.1,0.9
124, ' 124 ',230,1,1,1,1,1.00,0.00,1.1,0.9,1.1,0.9
201, ' 201 ',138,2,1,1,1,1.00,0.00,1.1,0.9,1.1,0.9
202, ' 202 ',138,2,1,1,1,1.00,0.00,1.1,0.9,1.1,0.9
203, ' 203 ',138,1,1,1,1,1.00,0.00,1.1,0.9,1.1,0.9
204, ' 204 ',138,1,1,1,1,1.00,0.00,1.1,0.9,1.1,0.9
205, ' 205 ',138,1,1,1,1,1.00,0.00,1.1,0.9,1.1,0.9
206, ' 206 ',138,1,1,1,1,1.00,0.00,1.1,0.9,1.1,0.9
207, ' 207 ',138,2,1,1,1,1.00,0.00,1.1,0.9,1.1,0.9
208, ' 208 ',138,1,1,1,1,1.00,0.00,1.1,0.9,1.1,0.9
209, ' 209 ',138,1,1,1,1,1.00,0.00,1.1,0.9,1.1,0.9
210, ' 210 ',138,1,1,1,1,1.00,0.00,1.1,0.9,1.1,0.9
211, ' 211 ',230,1,1,1,1,1.00,0.00,1.1,0.9,1.1,0.9
212, ' 212 ',230,1,1,1,1,1.00,0.00,1.1,0.9,1.1,0.9
213, ' 213 ',230,2,1,1,1,1.00,0.00,1.1,0.9,1.1,0.9
214, ' 214 ',230,2,1,1,1,1.00,0.00,1.1,0.9,1.1,0.9
215, ' 215 ',230,2,1,1,1,1.00,0.00,1.1,0.9,1.1,0.9
216, ' 216 ',230,2,1,1,1,1.00,0.00,1.1,0.9,1.1,0.9
217, ' 217 ',230,1,1,1,1,1.00,0.00,1.1,0.9,1.1,0.9
218, ' 218 ',230,2,1,1,1,1.00,0.00,1.1,0.9,1.1,0.9
219, ' 219 ',230,1,1,1,1,1.00,0.00,1.1,0.9,1.1,0.9
220, ' 220 ',230,1,1,1,1,1.00,0.00,1.1,0.9,1.1,0.9
221, ' 221 ',230,2,1,1,1,1.00,0.00,1.1,0.9,1.1,0.9
222, ' 222 ',230,2,1,1,1,1.00,0.00,1.1,0.9,1.1,0.9
223, ' 223 ',230,2,1,1,1,1.00,0.00,1.1,0.9,1.1,0.9
224, ' 224 ',230,1,1,1,1,1.00,0.00,1.1,0.9,1.1,0.9
301, ' 301 ',138,2,1,1,1,1.00,0.00,1.1,0.9,1.1,0.9
302, ' 302 ',138,2,1,1,1,1.00,0.00,1.1,0.9,1.1,0.9
303, ' 303 ',138,1,1,1,1,1.00,0.00,1.1,0.9,1.1,0.9
304, ' 304 ',138,1,1,1,1,1.00,0.00,1.1,0.9,1.1,0.9
305, ' 305 ',138,1,1,1,1,1.00,0.00,1.1,0.9,1.1,0.9
306, ' 306 ',138,1,1,1,1,1.00,0.00,1.1,0.9,1.1,0.9
307, ' 307 ',138,2,1,1,1,1.00,0.00,1.1,0.9,1.1,0.9
308, ' 308 ',138,1,1,1,1,1.00,0.00,1.1,0.9,1.1,0.9
309, ' 309 ',138,1,1,1,1,1.00,0.00,1.1,0.9,1.1,0.9
310, ' 310 ',138,1,1,1,1,1.00,0.00,1.1,0.9,1.1,0.9
311, ' 311 ',230,1,1,1,1,1.00,0.00,1.1,0.9,1.1,0.9
312, ' 312 ',230,1,1,1,1,1.00,0.00,1.1,0.9,1.1,0.9
313, ' 313 ',230,2,1,1,1,1.00,0.00,1.1,0.9,1.1,0.9
314, ' 314 ',230,2,1,1,1,1.00,0.00,1.1,0.9,1.1,0.9
315, ' 315 ',230,2,1,1,1,1.00,0.00,1.1,0.9,1.1,0.9
316, ' 316 ',230,2,1,1,1,1.00,0.00,1.1,0.9,1.1,0.9
317, ' 317 ',230,1,1,1,1,1.00,0.00,1.1,0.9,1.1,0.9
318, ' 318 ',230,2,1,1,1,1.00,0.00,1.1,0.9,1.1,0.9
319, ' 319 ',230,1,1,1,1,1.00,0.00,1.1,0.9,1.1,0.9
320, ' 320 ',230,1,1,1,1,1.00,0.00,1.1,0.9,1.1,0.9
321, ' 321 ',230,2,1,1,1,1.00,0.00,1.1,0.9,1.1,0.9
322, ' 322 ',230,2,1,1,1,1.00,0.00,1.1,0.9,1.1,0.9
323, ' 323 ',230,2,1,1,1,1.00,0.00,1.1,0.9,1.1,0.9
324, ' 324 ',230,1,1,1,1,1.00,0.00,1.1,0.9,1.1,0.9
325, ' 325 ',230,1,1,1,1,1.00,0.00,1.1,0.9,1.1,0.9
0 / END OF BUS DATA, BEGIN LOAD DATA
101, '1 ',1,11,11,64.71280448920223,18.217527149034108,0.0,0.0,0.0,0.0,1,1,0
102, '1 ',1,11,12,74.41076854086822,12.132230812543071,0.0,0.0,0.0,0.0,1,1,0
103, '1 ',1,11,11,128.7773542437572,30.69564479212174,0.0,0.0,0.0,0.0,1,1,0
104, '1 ',1,11,11,38.58264241974865,7.50044531723787,0.0,0.0,0.0,0.0,1,1,0
105, '1 ',1,11,11,61.227323241637556,11.607198391615134,0.0,0.0,0.0,0.0,1,1,0
106, '1 ',1,11,12,115.15047335034909,18.286616583729163,0.0,0.0,0.0,0.0,1,1,0
107, '1 ',1,11,12,71.28699873912265,16.43209971404518,0.0,0.0,0.0,0.0,1,1,0
108, '1 ',1,11,12,132.8668241924983,31.04199016187852,0.0,0.0,0.0,0.0,1,1,0
109, '1 ',1,11,13,88.80415875410428,28.85015178540051,0.0,0.0,0.0,0.0,1,1,0
110, '1 ',1,11,13,106.67698629338177,21.247633358314634,0.0,0.0,0.0,0.0,1,1,0
111, '1 ',1,11,13,0.0,0.0,0.0,0.0,0.0,0.0,1,1,0
112, '1 ',1,11,13,0.0,0.0,0.0,0.0,0.0,0.0,1,1,0
113, '1 ',1,12,14,165.41650726553752,41.992500115208145,0.0,0.0,0.0,0.0,1,1,0
114, '1 ',1,12,16,119.10596395993699,25.26048216438317,0.0,0.0,0.0,0.0,1,1,0
115, '1 ',1,12,16,214.27074478831443,32.88765198165178,0.0,0.0,0.0,0.0,1,1,0
116, '1 ',1,12,16,63.4825808796985,17.296337277869693,0.0,0.0,0.0,0.0,1,1,0
117, '1 ',1,12,17,0.0,0.0,0.0,0.0,0.0,0.0,1,1,0
118, '1 ',1,12,17,204.90734507462412,51.18805202037133,0.0,0.0,0.0,0.0,1,1,0
119, '1 ',1,12,15,100.32141916927533,21.214430410870673,0.0,0.0,0.0,0.0,1,1,0
120, '1 ',1,12,15,95.22792598954437,15.466140694420226,0.0,0.0,0.0,0.0,1,1,0
121, '1 ',1,12,17,0.0,0.0,0.0,0.0,0.0,0.0,1,1,0
122, '1 ',1,12,17,0.0,0.0,0.0,0.0,0.0,0.0,1,1,0
123, '1 ',1,12,15,0.0,0.0,0.0,0.0,0.0,0.0,1,1,0
124, '1 ',1,12,16,0.0,0.0,0.0,0.0,0.0,0.0,1,1,0
201, '1 ',1,21,21,52.79967611538189,13.986789854865522,0.0,0.0,0.0,0.0,1,1,0
202, '1 ',1,21,22,77.31814964127001,11.062324901551007,0.0,0.0,0.0,0.0,1,1,0
203, '1 ',1,21,21,130.66081308797746,24.187078245570742,0.0,0.0,0.0,0.0,1,1,0
204, '1 ',1,21,21,47.621947743872646,9.99784395236196,0.0,0.0,0.0,0.0,1,1,0
205, '1 ',1,21,21,55.739569265590426,7.864335932074673,0.0,0.0,0.0,0.0,1,1,0
206, '1 ',1,21,22,90.8639954259284,13.910798495380952,0.0,0.0,0.0,0.0,1,1,0
207, '1 ',1,21,22,81.33502687158762,12.655472425804472,0.0,0.0,0.0,0.0,1,1,0
208, '1 ',1,21,22,99.0852379351701,29.4852448909313,0.0,0.0,0.0,0.0,1,1,0
209, '1 ',1,21,23,137.5165409938444,31.374526627942178,0.0,0.0,0.0,0.0,1,1,0
210, '1 ',1,21,23,148.51901642006985,31.77832889281399,0.0,0.0,0.0,0.0,1,1,0
211, '1 ',1,21,23,0.0,0.0,0.0,0.0,0.0,0.0,1,1,0
212, '1 ',1,21,23,0.0,0.0,0.0,0.0,0.0,0.0,1,1,0
213, '1 ',1,22,24,220.76581658187186,39.53375863683214,0.0,0.0,0.0,0.0,1,1,0
214, '1 ',1,22,26,130.84605427919962,30.433354658373165,0.0,0.0,0.0,0.0,1,1,0
215, '1 ',1,22,26,256.97816931229363,37.29752996705174,0.0,0.0,0.0,0.0,1,1,0
216, '1 ',1,22,26,66.67899957389105,13.147156417521646,0.0,0.0,0.0,0.0,1,1,0
217, '1 ',1,22,27,0.0,0.0,0.0,0.0,0.0,0.0,1,1,0
218, '1 ',1,22,27,212.7543145601104,33.759756153457424,0.0,0.0,0.0,0.0,1,1,0
219, '1 ',1,22,25,114.38627532723109,26.338969287582717,0.0,0.0,0.0,0.0,1,1,0
220, '1 ',1,22,25,70.08228895733355,15.52793823749358,0.0,0.0,0.0,0.0,1,1,0
221, '1 ',1,22,27,0.0,0.0,0.0,0.0,0.0,0.0,1,1,0
222, '1 ',1,22,27,0.0,0.0,0.0,0.0,0.0,0.0,1,1,0
223, '1 ',1,22,25,0.0,0.0,0.0,0.0,0.0,0.0,1,1,0
224, '1 ',1,22,26,0.0,0.0,0.0,0.0,0.0,0.0,1,1,0
301, '1 ',1,31,31,70.49656956151296,19.220436693082007,0.0,0.0,0.0,0.0,1,1,0
302, '1 ',1,31,32,48.67827088152026,16.792402883268892,0.0,0.0,0.0,0.0,1,1,0
303, '1 ',1,31,31,106.747687881371,30.472081268061693,0.0,0.0,0.0,0.0,1,1,0
304, '1 ',1,31,31,53.14918719055541,7.687198871963192,0.0,0.0,0.0,0.0,1,1,0
305, '1 ',1,31,31,60.727151687654626,10.161551218260918,0.0,0.0,0.0,0.0,1,1,0
306, '1 ',1,31,32,105.54402020645254,22.2104080728421,0.0,0.0,0.0,0.0,1,1,0
307, '1 ',1,31,32,110.77017854859587,19.854075613314055,0.0,0.0,0.0,0.0,1,1,0
308, '1 ',1,31,32,140.9746901863181,22.40609091514,0.0,0.0,0.0,0.0,1,1,0
309, '1 ',1,31,33,89.1948660692945,26.11882156865448,0.0,0.0,0.0,0.0,1,1,0
310, '1 ',1,31,33,135.87793054727115,35.08414545615949,0.0,0.0,0.0,0.0,1,1,0
311, '1 ',1,31,33,0.0,0.0,0.0,0.0,0.0,0.0,1,1,0
312, '1 ',1,31,33,0.0,0.0,0.0,0.0,0.0,0.0,1,1,0
313, '1 ',1,32,34,136.70832628639508,41.79043637472326,0.0,0.0,0.0,0.0,1,1,0
314, '1 ',1,32,36,139.53620648572203,28.665476679096557,0.0,0.0,0.0,0.0,1,1,0
315, '1 ',1,32,36,234.1284645888033,53.70416593512297,0.0,0.0,0.0,0.0,1,1,0
316, '1 ',1,32,36,67.63028370936401,11.492056242286226,0.0,0.0,0.0,0.0,1,1,0
317, '1 ',1,32,37,0.0,0.0,0.0,0.0,0.0,0.0,1,1,0
318, '1 ',1,32,37,182.48758974185682,36.306188770190815,0.0,0.0,0.0,0.0,1,1,0
319, '1 ',1,32,35,138.60134733956843,28.499358532129552,0.0,0.0,0.0,0.0,1,1,0
320, '1 ',1,32,35,75.76542944658995,14.263809630574006,0.0,0.0,0.0,0.0,1,1,0
321, '1 ',1,32,37,0.0,0.0,0.0,0.0,0.0,0.0,1,1,0
322, '1 ',1,32,37,0.0,0.0,0.0,0.0,0.0,0.0,1,1,0
323, '1 ',1,32,35,0.0,0.0,0.0,0.0,0.0,0.0,1,1,0
324, '1 ',1,32,36,0.0,0.0,0.0,0.0,0.0,0.0,1,1,0
325, '1 ',1,32,35,0.0,0.0,0.0,0.0,0.0,0.0,1,1,0
0 / END OF LOAD DATA, BEGIN FIXED SHUNT DATA
0 / END OF FIXED SHUNT DATA, BEGIN GENERATOR DATA
101,1,10,0,11.194596770685166,-1.2392389685846865,1.035,0,24,0,1,0,0,1,1,100,23.59716963302344,19.148585524372756,1,1,0,1
101,2,10,0,7.23578853951767,-2.8222911776974806,1.035,0,24,0,1,0,0,1,1,100,24.196208304725587,20.142747121304275,1,1,0,1
101,3,76,14.1,29.73444300983101,-36.692660407861695,1.035,0,89,0,1,0,0,1,1,100,59.13568202368914,16.38417733222677,1,1,0,1
101,4,76,14.1,29.909799402114004,-25.53595776553265,1.035,0,89,0,1,0,0,1,1,100,83.48712105266749,32.42751301430165,1,1,0,1
102,5,10,0,12.816269242670387,5.119546211790294,1.035,0,24,0,1,0,0,1,1,100,23.78355112951249,19.652778391819446,1,1,0,1
102,6,10,0,9.27941425377503,1.9872364508919418,1.035,0,24,0,1,0,0,1,1,100,24.029350395314395,19.446943796705455,1,1,0,1
102,7,76,7,26.04340673284605,-23.586331059457734,1.035,0,89,0,1,0,0,1,1,100,94.24834559187295,40.655896638333815,1,1,0,1
102,8,76,7,34.759134457446635,-26.551564700668678,1.035,0,89,0,1,0,0,1,1,100,97.70052359420808,37.05975014556201,1,1,0,1
107,9,80,17.2,61.95826816186309,3.746822859160602,1.025,0,118,0,1,0,0,1,1,100,72.62893144506961,1.999309529051635,1,1,0,1
107,10,80,17.2,60.08092184364796,-6.502297142520547,1.025,0,118,0,1,0,0,1,1,100,99.05040937010199,4.822551681427285,1,1,0,1
107,11,80,17.2,67.79344181902707,5.998363260179765,1.025,0,118,0,1,0,0,1,1,100,85.94156790524721,2.538423274655893,1,1,0,1
113,12,95.1,40.7,91.35940312594175,27.579950362443924,1.02,0,232,0,1,0,0,1,1,100,231.38539778250268,67.30310707862716,1,1,0,1
113,13,95.1,40.7,80.7906513698399,16.87564644590021,1.02,0,232,0,1,0,0,1,1,100,211.1857625413686,46.563625890887295,1,1,0,1
113,14,95.1,40.7,76.87287111580372,6.91035858169198,1.02,0,232,0,1,0,0,1,1,100,176.20677569075485,39.983666870377476,1,1,0,1
114,15,0,13.7,157.83507629297674,-99.85998617717996,0.98,0,100,0,1,0,0,1,1,100,0.0,0.0,1,1,0,1
115,16,12,0,4.470982063002884,0.13338901782408374,1.014,0,14,0,1,0,0,1,1,100,12.084104901552202,3.8908095923066153,1,1,0,1
115,17,12,0,7.776792550273241,3.3960613304749145,1.014,0,14,0,1,0,0,1,1,100,10.527455112151802,1.6326315889880068,1,1,0,1
115,18,12,0,5.71760353250429,0.4629242685623467,1.014,0,14,0,1,0,0,1,1,100,13.048207822814582,5.645807602778076,1,1,0,1
115,19,12,0,5.071056690718979,-0.6893913371488445,1.014,0,14,0,1,0,0,1,1,100,13.343334395438433,3.0686757333576686,1,1,0,1
115,20,12,0,4.841326320078224,0.254165526106954,1.014,0,14,0,1,0,0,1,1,100,13.093138317391277,3.2285112849622983,1,1,0,1
115,21,155,0.05,62.65791424363851,-29.867032962851233,1.014,0,182,0,1,0,0,1,1,100,143.88621410937048,57.628077889396806,1,1,0,1
116,22,155,25.22,76.93090879917145,-28.886881155427545,1.017,0,182,0,1,0,0,1,1,100,118.24301647138782,22.321983349847144,1,1,0,1
118,23,400,137.4,209.40290807746348,-42.23885089624673,1.05,0,471,0,1,0,0,1,1,100,388.9874643459916,166.32522467989477,1,1,0,1
121,24,400,108.2,206.27430505119264,-68.5147613286972,1.05,0,471,0,1,0,0,1,1,100,327.8989645279944,137.05967389191503,1,1,0,1
122,25,50,-4.96,18.70700025483966,-11.99315676651895,1.05,0,53,0,1,0,0,1,1,100,52.195206484757364,9.04020187212155,1,1,0,1
122,26,50,-4.96,14.89307240024209,-3.41932816635817,1.05,0,53,0,1,0,0,1,1,100,48.86948128929362,13.999352157306825,1,1,0,1
122,27,50,-4.96,16.66920162513852,-16.115424137841913,1.05,0,53,0,1,0,0,1,1,100,60.08911992656068,19.90394515916706,1,1,0,1
122,28,50,-4.96,14.111776606738568,-13.378580298367888,1.05,0,53,0,1,0,0,1,1,100,35.016156991478056,26.56395457843146,1,1,0,1
122,29,50,-4.96,17.385932273417712,-14.837454078067093,1.05,0,53,0,1,0,0,1,1,100,45.78086240682751,17.21625710977796,1,1,0,1
122,30,50,-4.96,20.007251397520307,-6.529320165421812,1.05,0,53,0,1,0,0,1,1,100,51.64294905029237,9.517728083209171,1,1,0,1
123,31,155,31.79,71.5848812237382,-82.48111877869815,1.05,0,182,0,1,0,0,1,1,100,130.17735731066205,22.899555875570513,1,1,0,1
123,32,155,31.79,77.92273409292102,-82.27436017850414,1.05,0,182,0,1,0,0,1,1,100,129.86155237001367,27.32441241433844,1,1,0,1
123,33,350,71.78,124.9211843800731,-63.218138511292636,1.05,0,412,0,1,0,0,1,1,100,281.46469447761774,35.609147555660456,1,1,0,1
201,34,10,0,12.996894064825028,5.829939503688365,1.035,0,24,0,1,0,0,1,1,100,18.719418762251735,15.222607500003651,1,1,0,1
201,35,10,0,10.213100828696042,3.141268206294626,1.035,0,24,0,1,0,0,1,1,100,25.71458907518536,22.591759317349645,1,1,0,1
201,36,76,14.1,35.96454670233652,-3.366337696556002,1.035,0,89,0,1,0,0,1,1,100,59.09386628232896,58.40207767160523,1,1,0,1
201,37,76,14.1,24.474070214666423,-20.97133929561824,1.035,0,89,0,1,0,0,1,1,100,96.13423149697483,17.852537305876623,1,1,0,1
202,38,10,0,9.051736689172685,0.4857075707986951,1.035,0,24,0,1,0,0,1,1,100,22.032886752858758,18.187189277224242,1,1,0,1
202,39,10,0,11.737818486988544,4.688905937131495,1.035,0,24,0,1,0,0,1,1,100,18.199340040795505,14.760251754866914,1,1,0,1
202,40,76,7,21.9848279831931,-43.42130242730491,1.035,0,89,0,1,0,0,1,1,100,61.459830020554364,13.81834196958691,1,1,0,1
202,41,76,7,21.999940588138998,-43.65434264554642,1.035,0,89,0,1,0,0,1,1,100,74.42311801575124,15.241898490861061,1,1,0,1
207,42,80,17.2,47.18764011282474,-19.26985654514283,1.025,0,118,0,1,0,0,1,1,100,95.01983341760933,59.822559882446235,1,1,0,1
207,43,80,17.2,51.7532749408856,-4.051399301737547,1.025,0,118,0,1,0,0,1,1,100,102.91771599091591,40.60807117959486,1,1,0,1
207,44,80,17.2,73.26784850656986,20.36010650731623,1.025,0,118,0,1,0,0,1,1,100,73.47863606642932,1.1748556105885655,1,1,0,1
213,45,95.1,40.7,63.061014115810394,-40.005198027938604,1.02,0,232,0,1,0,0,1,1,100,151.75727808456867,53.25593380045609,1,1,0,1
213,46,95.1,40.7,65.59647170826793,-1.1591025441884995,1.02,0,232,0,1,0,0,1,1,100,181.73000033488495,77.95742586901642,1,1,0,1
213,47,95.1,40.7,65.29184633493423,-8.830735255032778,1.02,0,232,0,1,0,0,1,1,100,167.47413973361256,8.671379114945893,1,1,0,1
214,48,0,13.68,210.62842451967302,-91.91481067799035,0.98,0,100,0,1,0,0,1,1,100,0.0,0.0,1,1,0,1
215,49,12,0,7.310003349278123,2.8655130724422646,1.014,0,14,0,1,0,0,1,1,100,14.826413598842919,7.966605822332204,1,1,0,1
215,50,12,0,5.80007126647979,-0.218401138018816,1.014,0,14,0,1,0,0,1,1,100,9.873991606011987,6.162909625221326,1,1,0,1
215,51,12,0,5.587156611308455,-0.3418777238577615,1.014,0,14,0,1,0,0,1,1,100,9.807895530201494,1.573242161907256,1,1,0,1
215,52,12,0,5.757009728439152,0.24125047177076286,1.014,0,14,0,1,0,0,1,1,100,13.888986575603484,4.223711286932229,1,1,0,1
215,53,12,0,6.7650179620832205,0.4530541014857583,1.014,0,14,0,1,0,0,1,1,100,15.594247191399335,3.3123461960256098,1,1,0,1
215,54,155,0.048,98.81856255978346,-53.04943411657587,1.014,0,182,0,1,0,0,1,1,100,139.39536575134844,14.232002560782703,1,1,0,1
216,55,155,25.22,78.6992784962058,-38.3905891510658,1.017,0,182,0,1,0,0,1,1,100,117.39822562481275,46.65782233778154,1,1,0,1
218,56,400,137.4,173.02337356843054,-72.85479160025716,1.05,0,471,0,1,0,0,1,1,100,301.70769456773996,19.274118556641042,1,1,0,1
221,57,400,108.2,166.4008859358728,-102.41048206342384,1.05,0,471,0,1,0,0,1,1,100,446.7247425951063,230.63727423083031,1,1,0,1
222,58,50,-4.96,12.850013466924429,-14.257908865250647,1.05,0,53,0,1,0,0,1,1,100,41.115858072880656,2.116670322270001,1,1,0,1
222,59,50,-4.96,20.679415269941092,-11.5429707961157,1.05,0,53,0,1,0,0,1,1,100,61.044709030538804,22.97731351289855,1,1,0,1
222,60,50,-4.96,13.625121925026178,-6.808111695945261,1.05,0,53,0,1,0,0,1,1,100,56.609822262544185,2.249853245448321,1,1,0,1
222,61,50,-4.96,14.066689520329238,-16.34224566761404,1.05,0,53,0,1,0,0,1,1,100,35.21590955555439,15.880473540091328,1,1,0,1
222,62,50,-4.96,18.601767221838237,-0.17149231545626975,1.05,0,53,0,1,0,0,1,1,100,46.56310245161876,3.071906268596649,1,1,0,1
222,63,50,-4.96,19.966370195895436,0.9233370852656719,1.05,0,53,0,1,0,0,1,1,100,61.025464069098234,11.708627471675376,1,1,0,1
223,64,155,31.79,79.42560321837664,-33.417159839067594,1.05,0,182,0,1,0,0,1,1,100,189.29126064712182,82.32683570714435,1,1,0,1
223,65,155,31.79,74.44006578624249,-33.5327121373266,1.05,0,182,0,1,0,0,1,1,100,161.93463032622822,64.21269164471887,1,1,0,1
223,66,350,71.78,130.67283671814948,-38.453171419678256,1.05,0,412,0,1,0,0,1,1,100,290.4222222790122,17.8186229695566,1,1,0,1
301,67,10,0,9.871456502005458,-0.07829165551811457,1.035,0,24,0,1,0,0,1,1,100,17.13117832969874,12.435047369897367,1,1,0,1
301,68,10,0,7.380885530728847,-4.897220408543944,1.035,0,24,0,1,0,0,1,1,100,23.226155468262732,19.03292186353356,1,1,0,1
301,69,76,14.1,38.08596481243149,-25.50590082583949,1.035,0,89,0,1,0,0,1,1,100,74.0984665825963,23.87904806107283,1,1,0,1
301,70,76,14.1,38.74573636287823,-20.54682969301939,1.035,0,89,0,1,0,0,1,1,100,56.4171164618805,35.69516948156682,1,1,0,1
302,71,10,0,11.622425401583314,0.6952681308612227,1.035,0,24,0,1,0,0,1,1,100,18.495571759529412,15.52567695378326,1,1,0,1
302,72,10,0,10.198764170054346,-1.6643776539713144,1.035,0,24,0,1,0,0,1,1,100,25.53117259591818,21.938275374760853,1,1,0,1
302,73,76,7,21.38889239123091,-39.40284980949946,1.035,0,89,0,1,0,0,1,1,100,75.29818498417735,22.08327023848892,1,1,0,1
302,74,76,7,22.344705523923036,-45.608935626456514,1.035,0,89,0,1,0,0,1,1,100,65.8376402767375,24.94843580062349,1,1,0,1
307,75,80,17.2,73.91364762559533,26.95003596972675,1.025,0,118,0,1,0,0,1,1,100,71.90372683573514,0.13156460714526474,1,1,0,1
307,76,80,17.2,68.35138706769794,-6.089779623784125,1.025,0,118,0,1,0,0,1,1,100,122.07778073847292,60.891798370284945,1,1,0,1
307,77,80,17.2,61.80735546536744,4.057372966781266,1.025,0,118,0,1,0,0,1,1,100,108.43635011464356,54.63340569869614,1,1,0,1
313,78,95.1,40.7,74.12246154993773,-29.6974780485034,1.02,0,232,0,1,0,0,1,1,100,195.14356602854093,71.53904947134198,1,1,0,1
313,79,95.1,40.7,69.26014309003949,1.2101916074752808,1.02,0,232,0,1,0,0,1,1,100,196.7072032157797,35.8765855453419,1,1,0,1
313,80,95.1,40.7,66.84021516889334,-1.511759139597416,1.02,0,232,0,1,0,0,1,1,100,221.9572391907219,110.34990434885027,1,1,0,1
314,81,0,13.68,203.03950062952936,-27.325685345567763,0.98,0,100,0,1,0,0,1,1,100,0.0,0.0,1,1,0,1
315,82,12,0,6.620126334484667,0.5837106322869658,1.014,0,14,0,1,0,0,1,1,100,9.091095401532947,2.11382258820694,1,1,0,1
315,83,12,0,6.300775926746429,-0.34363521449267864,1.014,0,14,0,1,0,0,1,1,100,12.065150954201819,2.8163274943488226,1,1,0,1
315,84,12,0,5.406092882249505,-0.8036463291384282,1.014,0,14,0,1,0,0,1,1,100,12.797834891639651,0.6632394072040935,1,1,0,1
315,85,12,0,5.172604806348681,-1.3101972629316156,1.014,0,14,0,1,0,0,1,1,100,13.057894164696336,5.038788858130575,1,1,0,1
315,86,12,0,7.59906317414716,0.2569640566594904,1.014,0,14,0,1,0,0,1,1,100,11.005875143408776,6.393695382982669,1,1,0,1
315,87,155,0.048,70.45849337056279,-90.58132516546178,1.014,0,182,0,1,0,0,1,1,100,170.87854946171865,43.11329739021603,1,1,0,1
316,88,155,25.22,98.90283903107047,-25.82628543535246,1.017,0,182,0,1,0,0,1,1,100,196.25082830665633,91.60645524180727,1,1,0,1
318,89,400,137.4,169.52861573547125,-73.47334993071854,1.05,0,471,0,1,0,0,1,1,100,466.2477358430624,198.7479798309505,1,1,0,1
321,90,400,108.2,142.9362626839429,-34.43275162950158,1.05,0,471,0,1,0,0,1,1,100,308.9171682484448,259.8262288129797,1,1,0,1
322,91,50,-4.96,13.792694287747144,-6.624758928641677,1.05,0,53,0,1,0,0,1,1,100,38.81204780656844,20.3861133057619,1,1,0,1
322,92,50,-4.96,15.310416563600302,-16.11211864296347,1.05,0,53,0,1,0,0,1,1,100,46.42334860516712,9.414311852306128,1,1,0,1
322,93,50,-4.96,16.23396119773388,-17.27931996220723,1.05,0,53,0,1,0,0,1,1,100,62.24722696235403,2.812409377656877,1,1,0,1
322,94,50,-4.96,19.42198466435075,-3.5813433230854557,1.05,0,53,0,1,0,0,1,1,100,53.29281577607616,4.813180544984295,1,1,0,1
322,95,50,-4.96,13.683746607601641,-5.510604796744882,1.05,0,53,0,1,0,0,1,1,100,62.62592873768882,11.741972479727801,1,1,0,1
322,96,50,-4.96,17.95440530255437,-14.775081933196631,1.05,0,53,0,1,0,0,1,1,100,56.66711398167536,11.5367147536017,1,1,0,1
323,97,155,31.79,99.36145716533065,-56.041082196868956,1.05,0,182,0,1,0,0,1,1,100,198.28539018286392,82.09619065964363,1,1,0,1
323,98,155,31.79,99.26464252918959,-11.215231537818909,1.05,0,182,0,1,0,0,1,1,100,199.33207824802957,96.69753690762445,1,1,0,1
323,99,350,71.78,128.6121706548147,-7.140018903883174,1.05,0,412,0,1,0,0,1,1,100,272.2501338622533,65.82832313096151,1,1,0,1
0 / END OF GENERATOR DATA, BEGIN BRANCH DATA
101,102,1,0.003,0.014,0.461,210.0,231.6,240.0,0,0,0,0,1,1,0,1,1
101,103,1,0.055,0.211,0.057,210.0,249.6,264.0,0,0,0,0,1,1,0,1,1
101,105,1,0.022,0.085,0.023,210.0,249.6,264.0,0,0,0,0,1,1,0,1,1
102,104,1,0.033,0.127,0.034,210.0,249.6,264.0,0,0,0,0,1,1,0,1,1
102,106,1,0.05,0.192,0.052,210.0,249.6,264.0,0,0,0,0,1,1,0,1,1
103,109,1,0.031,0.119,0.032,210.0,249.6,264.0,0,0,0,0,1,1,0,1,1
104,109,1,0.027,0.104,0.028,210.0,249.6,264.0,0,0,0,0,1,1,0,1,1
105,110,1,0.023,0.088,0.024,210.0,249.6,264.0,0,0,0,0,1,1,0,1,1
106,110,1,0.014,0.061,2.459,210.0,231.6,240.0,0,0,0,0,1,1,0,1,1
107,108,1,0.016,0.061,0.017,210.0,249.6,264.0,0,0,0,0,1,1,0,1,1
107,203,1,0.042,0.161,0.044,210.0,249.6,264.0,0,0,0,0,1,1,0,1,1
108,109,1,0.043,0.165,0.045,210.0,249.6,264.0,0,0,0,0,1,1,0,1,1
108,110,1,0.043,0.165,0.045,210.0,249.6,264.0,0,0,0,0,1,1,0,1,1
111,113,1,0.006,0.048,0.1,600.0,720.0,750.0,0,0,0,0,1,1,0,1,1
111,114,1,0.005,0.042,0.088,600.0,720.0,750.0,0,0,0,0,1,1,0,1,1
112,113,1,0.006,0.048,0.1,600.0,720.0,750.0,0,0,0,0,1,1,0,1,1
112,123,1,0.012,0.097,0.203,600.0,720.0,750.0,0,0,0,0,1,1,0,1,1
113,123,1,0.011,0.087,0.182,600.0,720.0,750.0,0,0,0,0,1,1,0,1,1
113,215,1,0.01,0.075,0.158,600.0,720.0,750.0,0,0,0,0,1,1,0,1,1
114,116,1,0.005,0.059,0.082,600.0,720.0,750.0,0,0,0,0,1,1,0,1,1
115,116,1,0.002,0.017,0.036,600.0,720.0,750.0,0,0,0,0,1,1,0,1,1
115,121,1,0.006,0.049,0.103,600.0,720.0,750.0,0,0,0,0,1,1,0,1,1
115,121,2,0.006,0.049,0.103,600.0,720.0,750.0,0,0,0,0,1,1,0,1,1
115,124,1,0.007,0.052,0.109,600.0,720.0,750.0,0,0,0,0,1,1,0,1,1
116,117,1,0.003,0.026,0.055,600.0,720.0,750.0,0,0,0,0,1,1,0,1,1
116,119,1,0.003,0.023,0.049,600.0,720.0,750.0,0,0,0,0,1,1,0,1,1
117,118,1,0.002,0.014,0.03,600.0,720.0,750.0,0,0,0,0,1,1,0,1,1
117,122,1,0.014,0.105,0.221,600.0,720.0,750.0,0,0,0,0,1,1,0,1,1
118,121,1,0.003,0.026,0.055,600.0,720.0,750.0,0,0,0,0,1,1,0,1,1
118,121,2,0.003,0.026,0.055,600.0,720.0,750.0,0,0,0,0,1,1,0,1,1
119,120,1,0.005,0.04,0.083,600.0,720.0,750.0,0,0,0,0,1,1,0,1,1
119,120,2,0.005,0.04,0.083,600.0,720.0,750.0,0,0,0,0,1,1,0,1,1
120,123,1,0.003,0.022,0.046,600.0,720.0,750.0,0,0,0,0,1,1,0,1,1
120,123,2,0.003,0.022,0.046,600.0,720.0,750.0,0,0,0,0,1,1,0,1,1
121,122,1,0.009,0.068,0.142,600.0,720.0,750.0,0,0,0,0,1,1,0,1,1
123,217,1,0.01,0.074,0.155,600.0,720.0,750.0,0,0,0,0,1,1,0,1,1
201,202,1,0.003,0.014,0.461,210.0,231.6,240.0,0,0,0,0,1,1,0,1,1
201,203,1,0.055,0.211,0.057,210.0,249.6,264.0,0,0,0,0,1,1,0,1,1
201,205,1,0.022,0.085,0.023,210.0,249.6,264.0,0,0,0,0,1,1,0,1,1
202,204,1,0.033,0.127,0.034,210.0,249.6,264.0,0,0,0,0,1,1,0,1,1
202,206,1,0.05,0.192,0.052,210.0,249.6,264.0,0,0,0,0,1,1,0,1,1
203,209,1,0.031,0.119,0.032,210.0,249.6,264.0,0,0,0,0,1,1,0,1,1
204,209,1,0.027,0.104,0.028,210.0,249.6,264.0,0,0,0,0,1,1,0,1,1
205,210,1,0.023,0.088,0.024,210.0,249.6,264.0,0,0,0,0,1,1,0,1,1
206,210,1,0.014,0.061,2.459,210.0,231.6,240.0,0,0,0,0,1,1,0,1,1
207,208,1,0.016,0.061,0.017,210.0,249.6,264.0,0,0,0,0,1,1,0,1,1
208,209,1,0.043,0.165,0.045,210.0,249.6,264.0,0,0,0,0,1,1,0,1,1
208,210,1,0.043,0.165,0.045,210.0,249.6,264.0,0,0,0,0,1,1,0,1,1
211,213,1,0.006,0.048,0.1,600.0,720.0,750.0,0,0,0,0,1,1,0,1,1
211,214,1,0.005,0.042,0.088,600.0,720.0,750.0,0,0,0,0,1,1,0,1,1
212,213,1,0.006,0.048,0.1,600.0,720.0,750.0,0,0,0,0,1,1,0,1,1
212,223,1,0.012,0.097,0.203,600.0,720.0,750.0,0,0,0,0,1,1,0,1,1
213,223,1,0.011,0.087,0.182,600.0,720.0,750.0,0,0,0,0,1,1,0,1,1
214,216,1,0.005,0.059,0.082,600.0,720.0,750.0,0,0,0,0,1,1,0,1,1
215,216,1,0.002,0.017,0.036,600.0,720.0,750.0,0,0,0,0,1,1,0,1,1
215,221,1,0.006,0.049,0.103,600.0,720.0,750.0,0,0,0,0,1,1,0,1,1
215,221,2,0.006,0.049,0.103,600.0,720.0,750.0,0,0,0,0,1,1,0,1,1
215,224,1,0.007,0.052,0.109,600.0,720.0,750.0,0,0,0,0,1,1,0,1,1
216,217,1,0.003,0.026,0.055,600.0,720.0,750.0,0,0,0,0,1,1,0,1,1
216,219,1,0.003,0.023,0.049,600.0,720.0,750.0,0,0,0,0,1,1,0,1,1
217,218,1,0.002,0.014,0.03,600.0,720.0,750.0,0,0,0,0,1,1,0,1,1
217,222,1,0.014,0.105,0.221,600.0,720.0,750.0,0,0,0,0,1,1,0,1,1
218,221,1,0.003,0.026,0.055,600.0,720.0,750.0,0,0,0,0,1,1,0,1,1
218,221,2,0.003,0.026,0.055,600.0,720.0,750.0,0,0,0,0,1,1,0,1,1
219,220,1,0.005,0.04,0.083,600.0,720.0,750.0,0,0,0,0,1,1,0,1,1
219,220,2,0.005,0.04,0.083,600.0,720.0,750.0,0,0,0,0,1,1,0,1,1
220,223,1,0.003,0.022,0.046,600.0,720.0,750.0,0,0,0,0,1,1,0,1,1
220,223,2,0.003,0.022,0.046,600.0,720.0,750.0,0,0,0,0,1,1,0,1,1
221,222,1,0.009,0.068,0.142,600.0,720.0,750.0,0,0,0,0,1,1,0,1,1
301,302,1,0.003,0.014,0.461,210.0,231.6,240.0,0,0,0,0,1,1,0,1,1
301,303,1,0.055,0.211,0.057,210.0,249.6,264.0,0,0,0,0,1,1,0,1,1
301,305,1,0.022,0.085,0.023,210.0,249.6,264.0,0,0,0,0,1,1,0,1,1
302,304,1,0.033,0.127,0.034,210.0,249.6,264.0,0,0,0,0,1,1,0,1,1
302,306,1,0.05,0.192,0.052,210.0,249.6,264.0,0,0,0,0,1,1,0,1,1
303,309,1,0.031,0.119,0.032,210.0,249.6,264.0,0,0,0,0,1,1,0,1,1
304,309,1,0.027,0.104,0.028,210.0,249.6,264.0,0,0,0,0,1,1,0,1,1
305,310,1,0.023,0.088,0.024,210.0,249.6,264.0,0,0,0,0,1,1,0,1,1
306,310,1,0.014,0.061,2.459,210.0,231.6,240.0,0,0,0,0,1,1,0,1,1
307,308,1,0.016,0.061,0.017,210.0,249.6,264.0,0,0,0,0,1,1,0,1,1
308,309,1,0.043,0.165,0.045,210.0,249.6,264.0,0,0,0,0,1,1,0,1,1
308,310,1,0.043,0.165,0.045,210.0,249.6,264.0,0,0,0,0,1,1,0,1,1
311,313,1,0.006,0.048,0.1,600.0,720.0,750.0,0,0,0,0,1,1,0,1,1
311,314,1,0.005,0.042,0.088,600.0,720.0,750.0,0,0,0,0,1,1,0,1,1
312,313,1,0.006,0.048,0.1,600.0,720.0,750.0,0,0,0,0,1,1,0,1,1
312,323,1,0.012,0.097,0.203,600.0,720.0,750.0,0,0,0,0,1,1,0,1,1
313,323,1,0.011,0.087,0.182,600.0,720.0,750.0,0,0,0,0,1,1,0,1,1
314,316,1,0.005,0.059,0.082,600.0,720.0,750.0,0,0,0,0,1,1,0,1,1
315,316,1,0.002,0.017,0.036,600.0,720.0,750.0,0,0,0,0,1,1,0,1,1
315,321,1,0.006,0.049,0.103,600.0,720.0,750.0,0,0,0,0,1,1,0,1,1
315,321,2,0.006,0.049,0.103,600.0,720.0,750.0,0,0,0,0,1,1,0,1,1
315,324,1,0.007,0.052,0.109,600.0,720.0,750.0,0,0,0,0,1,1,0,1,1
316,317,1,0.003,0.026,0.055,600.0,720.0,750.0,0,0,0,0,1,1,0,1,1
316,319,1,0.003,0.023,0.049,600.0,720.0,750.0,0,0,0,0,1,1,0,1,1
317,318,1,0.002,0.014,0.03,600.0,720.0,750.0,0,0,0,0,1,1,0,1,1
317,322,1,0.014,0.105,0.221,600.0,720.0,750.0,0,0,0,0,1,1,0,1,1
318,223,1,0.013,0.104,0.218,600.0,720.0,750.0,0,0,0,0,1,1,0,1,1
318,321,1,0.003,0.026,0.055,600.0,720.0,750.0,0,0,0,0,1,1,0,1,1
318,321,2,0.003,0.026,0.055,600.0,720.0,750.0,0,0,0,0,1,1,0,1,1
319,320,1,0.005,0.04,0.083,600.0,720.0,750.0,0,0,0,0,1,1,0,1,1
319,320,2,0.005,0.04,0.083,600.0,720.0,750.0,0,0,0,0,1,1,0,1,1
320,323,1,0.003,0.022,0.046,600.0,720.0,750.0,0,0,0,0,1,1,0,1,1
320,323,2,0.003,0.022,0.046,600.0,720.0,750.0,0,0,0,0,1,1,0,1,1
321,322,1,0.009,0.068,0.142,600.0,720.0,750.0,0,0,0,0,1,1,0,1,1
323,325,1,0,0.009,0,866.4,1071.6,1071.6,0,0,0,0,1,1,0,1,1
0 / END OF BRANCH DATA, BEGIN TRANSFORMER DATA
  103 ,  124 , 0,  1 , 1, 1, 1, 0, 0, 2, '            ',  1 , 1, 1
   0.002000 ,  0.084000 ,  100.000000
   1.015000 , 0,  0.000000 ,  400.000000 ,  510.000000 ,  600.000000 , 0, 0,  1.10 ,  0.90 ,  1.10 ,  0.90 , 33, 0, 0, 0
   1.000000, 0
  109 ,  111 , 0,  1 , 1, 1, 1, 0, 0, 2, '            ',  1 , 1, 1
   0.002000 ,  0.084000 ,  100.000000
   1.030000 , 0,  0.000000 ,  400.000000 ,  510.000000 ,  600.000000 , 0, 0,  1.10 ,  0.90 ,  1.10 ,  0.90 , 33, 0, 0, 0
   1.000000, 0
  109 ,  112 , 0,  1 , 1, 1, 1, 0, 0, 2, '            ',  1 , 1, 1
   0.002000 ,  0.084000 ,  100.000000
   1.030000 , 0,  0.000000 ,  400.000000 ,  510.000000 ,  600.000000 , 0, 0,  1.10 ,  0.90 ,  1.10 ,  0.90 , 33, 0, 0, 0
   1.000000, 0
  110 ,  111 , 0,  1 , 1, 1, 1, 0, 0, 2, '            ',  1 , 1, 1
   0.002000 ,  0.084000 ,  100.000000
   1.015000 , 0,  0.000000 ,  400.000000 ,  510.000000 ,  600.000000 , 0, 0,  1.10 ,  0.90 ,  1.10 ,  0.90 , 33, 0, 0, 0
   1.000000, 0
  110 ,  112 , 0,  1 , 1, 1, 1, 0, 0, 2, '            ',  1 , 1, 1
   0.002000 ,  0.084000 ,  100.000000
   1.015000 , 0,  0.000000 ,  400.000000 ,  510.000000 ,  600.000000 , 0, 0,  1.10 ,  0.90 ,  1.10 ,  0.90 , 33, 0, 0, 0
   1.000000, 0
  203 ,  224 , 0,  1 , 1, 1, 1, 0, 0, 2, '            ',  1 , 1, 1
   0.002000 ,  0.084000 ,  100.000000
   1.015000 , 0,  0.000000 ,  400.000000 ,  510.000000 ,  600.000000 , 0, 0,  1.10 ,  0.90 ,  1.10 ,  0.90 , 33, 0, 0, 0
   1.000000, 0
  209 ,  211 , 0,  1 , 1, 1, 1, 0, 0, 2, '            ',  1 , 1, 1
   0.002000 ,  0.084000 ,  100.000000
   1.030000 , 0,  0.000000 ,  400.000000 ,  510.000000 ,  600.000000 , 0, 0,  1.10 ,  0.90 ,  1.10 ,  0.90 , 33, 0, 0, 0
   1.000000, 0
  209 ,  212 , 0,  1 , 1, 1, 1, 0, 0, 2, '            ',  1 , 1, 1
   0.002000 ,  0.084000 ,  100.000000
   1.030000 , 0,  0.000000 ,  400.000000 ,  510.000000 ,  600.000000 , 0, 0,  1.10 ,  0.90 ,  1.10 ,  0.90 , 33, 0, 0, 0
   1.000000, 0
  210 ,  211 , 0,  1 , 1, 1, 1, 0, 0, 2, '            ',  1 , 1, 1
   0.002000 ,  0.084000 ,  100.000000
   1.015000 , 0,  0.000000 ,  400.000000 ,  510.000000 ,  600.000000 , 0, 0,  1.10 ,  0.90 ,  1.10 ,  0.90 , 33, 0, 0, 0
   1.000000, 0
  210 ,  212 , 0,  1 , 1, 1, 1, 0, 0, 2, '            ',  1 , 1, 1
   0.002000 ,  0.084000 ,  100.000000
   1.015000 , 0,  0.000000 ,  400.000000 ,  510.000000 ,  600.000000 , 0, 0,  1.10 ,  0.90 ,  1.10 ,  0.90 , 33, 0, 0, 0
   1.000000, 0
  303 ,  324 , 0,  1 , 1, 1, 1, 0, 0, 2, '            ',  1 , 1, 1
   0.002000 ,  0.084000 ,  100.000000
   1.015000 , 0,  0.000000 ,  400.000000 ,  510.000000 ,  600.000000 , 0, 0,  1.10 ,  0.90 ,  1.10 ,  0.90 , 33, 0, 0, 0
   1.000000, 0
  309 ,  311 , 0,  1 , 1, 1, 1, 0, 0, 2, '            ',  1 , 1, 1
   0.002000 ,  0.084000 ,  100.000000
   1.030000 , 0,  0.000000 ,  400.000000 ,  510.000000 ,  600.000000 , 0, 0,  1.10 ,  0.90 ,  1.10 ,  0.90 , 33, 0, 0, 0
   1.000000, 0
  309 ,  312 , 0,  1 , 1, 1, 1, 0, 0, 2, '            ',  1 , 1, 1
   0.002000 ,  0.084000 ,  100.000000
   1.030000 , 0,  0.000000 ,  400.000000 ,  510.000000 ,  600.000000 , 0, 0,  1.10 ,  0.90 ,  1.10 ,  0.90 , 33, 0, 0, 0
   1.000000, 0
  310 ,  311 , 0,  1 , 1, 1, 1, 0, 0, 2, '            ',  1 , 1, 1
   0.002000 ,  0.084000 ,  100.000000
   1.015000 , 0,  0.000000 ,  400.000000 ,  510.000000 ,  600.000000 , 0, 0,  1.10 ,  0.90 ,  1.10 ,  0.90 , 33, 0, 0, 0
   1.000000, 0
  310 ,  312 , 0,  1 , 1, 1, 1, 0, 0, 2, '            ',  1 , 1, 1
   0.002000 ,  0.084000 ,  100.000000
   1.015000 , 0,  0.000000 ,  400.000000 ,  510.000000 ,  600.000000 , 0, 0,  1.10 ,  0.90 ,  1.10 ,  0.90 , 33, 0, 0, 0
   1.000000, 0
0 / END OF TRANSFORMER DATA, BEGIN AREA DATA
0 / END OF AREA DATA, BEGIN TWO-TERMINAL DC DATA
0 / END OF TWO-TERMINAL DC DATA, BEGIN VSC DC LINE DATA
0 / END OF VSC DC LINE DATA, BEGIN SWITCHED SHUNT DATA
0 / END OF SWITCHED SHUNT DATA, BEGIN IMPEDANCE CORRECTION DATA
0 / END OF IMPEDANCE CORRECTION DATA, BEGIN MULTI-TERMINAL DC DATA
0 / END OF MULTI-TERMINAL DC DATA, BEGIN MULTI-SECTION LINE DATA
0 / END OF MULTI-SECTION LINE DATA, BEGIN ZONE DATA
0 / END OF ZONE DATA, BEGIN INTER-AREA TRANSFER DATA
0 / END OF INTER-AREA TRANSFER DATA, BEGIN OWNER DATA
0 / END OF OWNER DATA, BEGIN FACTS CONTROL DEVICE DATA
0 / END OF FACTS CONTROL DEVICE DATA
0 / END OF SWITCHED SHUNT DATA, BEGIN GNE DATA
0 / END OF GNE DATA, BEGIN INDUCTION MACHINE DATA
0 / END OF INDUCTION MACHINE DATA
Q 
